Circuit: * C:\Users\Alejandro Santorum\Desktop\ALEX\DG\2º\1 CUATRIMESTRE\Circuitos Electrónicos\Prácticas\Práctica 6\Simulaciones\Draft1.asc

Direct Newton iteration for .op point succeeded.

Date: Sat Nov 18 15:31:45 2017
Total elapsed time: 0.097 seconds.

tnom = 27
temp = 27
method = modified trap
totiter = 741
traniter = 738
tranpoints = 370
accept = 370
rejected = 0
matrix size = 9
fillins = 1
solver = Normal
Matrix Compiler1: 440 bytes object code size  0.1/0.1/[0.0]
Matrix Compiler2: 765 bytes object code size  0.1/0.1/[0.1]

