Circuit: * C:\Users\Alejandro Santorum\Desktop\ALEX\DG\2º\1 CUATRIMESTRE\Circuitos Electrónicos\Prácticas\Práctica 5\Simulaciones\Circuito_apartadoB.asc

Number of points per decade reduced from 100000 to 9189.

Date: Sat Nov 11 15:46:01 2017
Total elapsed time: 0.328 seconds.

tnom = 27
temp = 27
method = trap
totiter = 0
traniter = 0
tranpoints = 0
accept = 0
rejected = 0
matrix size = 4
fillins = 0
solver = Normal

