Circuit: * C:\Users\Alejandro Santorum\Desktop\ALEX\DG\2º\1 CUATRIMESTRE\Circuitos Electrónicos\Prácticas\Práctica 5\Simulaciones\Draft1.asc

Direct Newton iteration failed to find .op point.  (Use ".option noopiter" to skip.)
Starting Gmin stepping
Increasing initial diagonal Gmin to 100
Increasing initial diagonal Gmin to 1000
Gmin = 1000
Gmin = 107.374
Gmin = 11.5292
Gmin = 1.23794
Gmin = 0.132923
Gmin = 0.0142725
Gmin = 0.0015325
Gmin = 0.00016455
Gmin = 1.76685e-005
Gmin = 1.89714e-006
Gmin = 2.03704e-007
Gmin = 2.18725e-008
Gmin = 2.34854e-009
Gmin = 2.52173e-010
Gmin = 2.70769e-011
Gmin = 2.90735e-012
Gmin = 3.12175e-013
Gmin = 0
Gmin stepping succeeded in finding the operating point.


Date: Sat Nov 11 12:05:38 2017
Total elapsed time: 0.103 seconds.

tnom = 27
temp = 27
method = modified trap
totiter = 4907
traniter = 4261
tranpoints = 2131
accept = 2112
rejected = 19
matrix size = 11
fillins = 0
solver = Normal
Matrix Compiler1: 396 bytes object code size  0.1/0.0/[0.0]
Matrix Compiler2: 841 bytes object code size  0.1/0.1/[0.1]

