Circuit: * C:\Users\eps\Desktop\P9 CIREL\Circuito LTSpice\Circuito_P9.asc


Date: Tue Dec 12 12:34:01 2017
Total elapsed time: 0.020 seconds.

tnom = 27
temp = 27
method = trap
totiter = 319
traniter = 0
tranpoints = 0
accept = 0
rejected = 0
matrix size = 6
fillins = 0
solver = Normal
Matrix Compiler1: 146 bytes object code size  0.1/0.0/[0.0]
Matrix Compiler2: 380 bytes object code size  0.0/0.1/[0.0]

