Circuit: * C:\Users\Alejandro Santorum\Desktop\ALEX\DG\2º\1 CUATRIMESTRE\Circuitos Electrónicos\Prácticas\Práctica 8\Simulaciones\Apartado_A.asc

Direct Newton iteration for .op point succeeded.

Date: Mon Nov 27 01:08:39 2017
Total elapsed time: 0.094 seconds.

tnom = 27
temp = 27
method = modified trap
totiter = 4579
traniter = 4575
tranpoints = 1405
accept = 916
rejected = 489
matrix size = 7
fillins = 0
solver = Normal
Matrix Compiler1: 178 bytes object code size  0.1/0.0/[0.0]
Matrix Compiler2: 427 bytes object code size  0.1/0.1/[0.1]

