Circuit: * C:\Users\Alejandro Santorum\Desktop\ALEX\DG\2º\1 CUATRIMESTRE\Circuitos Electrónicos\Prácticas\Práctica 8\Simulaciones\Apartado_B.asc

.OP point found by inspection.
.step ro=100
.step ro=200
.step ro=470
.step ro=1000
.step ro=2200
.step ro=4700
.step ro=10000
.step ro=22000

Date: Mon Nov 27 01:07:17 2017
Total elapsed time: 0.147 seconds.

tnom = 27
temp = 27
method = trap
totiter = 0
traniter = 0
tranpoints = 0
accept = 0
rejected = 0
matrix size = 3
fillins = 0
solver = Normal

