Circuit: * C:\Users\Alejandro Santorum\Desktop\ALEX\DG\2º\1 CUATRIMESTRE\Circuitos Electrónicos\Prácticas\Práctica 3\Draft1.asc

Direct Newton iteration for .op point succeeded.

Date: Sat Oct 21 00:37:00 2017
Total elapsed time: 0.031 seconds.

tnom = 27
temp = 27
method = trap
totiter = 3
traniter = 0
tranpoints = 0
accept = 0
rejected = 0
matrix size = 5
fillins = 0
solver = Normal
Matrix Compiler1: 114 bytes object code size
Matrix Compiler2: 301 bytes object code size
