Circuit: * C:\Users\Alejandro Santorum\Desktop\ALEX\DG\2º\1 CUATRIMESTRE\Circuitos Electrónicos\Prácticas\Práctica 7\Simulaciones\Apartado_A.asc

Number of points per decade reduced from 100000 to 12685.
Direct Newton iteration for .op point succeeded.

Date: Sun Nov 19 22:53:16 2017
Total elapsed time: 0.265 seconds.

tnom = 27
temp = 27
method = trap
totiter = 3
traniter = 0
tranpoints = 0
accept = 0
rejected = 0
matrix size = 9
fillins = 1
solver = Normal
Matrix Compiler1:      26 opcodes
Matrix Compiler2: 765 bytes object code size
