Circuit: * C:\Users\Alejandro Santorum\Desktop\ALEX\DG\2º\1 CUATRIMESTRE\Circuitos Electrónicos\Prácticas\Práctica 7\Simulaciones\Apartado_B2.asc

Number of points per decade reduced from 100000 to 15393.
Direct Newton iteration for .op point succeeded.

Date: Mon Nov 20 00:07:10 2017
Total elapsed time: 0.278 seconds.

tnom = 27
temp = 27
method = trap
totiter = 3
traniter = 0
tranpoints = 0
accept = 0
rejected = 0
matrix size = 10
fillins = 1
solver = Normal
Matrix Compiler1:      27 opcodes
Matrix Compiler2: 844 bytes object code size
