Circuit: * C:\Users\Alejandro Santorum\Desktop\ALEX\DG\2º\1 CUATRIMESTRE\Circuitos Electrónicos\Prácticas\Práctica 7\Simulaciones\Draft1.asc

Number of points per decade reduced from 100000 to 15393.
Direct Newton iteration for .op point succeeded.

Date: Sat Nov 18 16:01:57 2017
Total elapsed time: 0.300 seconds.

tnom = 27
temp = 27
method = trap
totiter = 3
traniter = 0
tranpoints = 0
accept = 0
rejected = 0
matrix size = 10
fillins = 1
solver = Normal
Matrix Compiler1:      27 opcodes
Matrix Compiler2: 844 bytes object code size
